data_image0
_chemical_formula_structural       Al96O144SiO2SiO2SiO2SiO2SiO2SiO2SiO2SiO2SiO2SiO2
_chemical_formula_sum              "Al96 O164 Si10"
_cell_length_a       16.6326007843
_cell_length_b       16.0130004883
_cell_length_c       45.0
_cell_angle_alpha    90.0
_cell_angle_beta     90.0
_cell_angle_gamma    90.0

_space_group_name_H-M_alt    "P 1"
_space_group_IT_number       1

loop_
  _space_group_symop_operation_xyz
  'x, y, z'

loop_
  _atom_site_type_symbol
  _atom_site_label
  _atom_site_symmetry_multiplicity
  _atom_site_fract_x
  _atom_site_fract_y
  _atom_site_fract_z
  _atom_site_occupancy
  Al  Al1       1.0  0.03776000002313721  0.30925999999927156  0.0010447508444444446  1.0000
  Al  Al2       1.0  0.03776000002313721  0.8092599999899045  0.0010447508444444446  1.0000
  Al  Al3       1.0  0.5377600000141188  0.30925999999927156  0.0010447508444444446  1.0000
  Al  Al4       1.0  0.5377600000141188  0.8092599999899045  0.0010447508444444446  1.0000
  Al  Al5       1.0  0.21223499997258935  0.30925999999927156  0.0010447508444444446  1.0000
  Al  Al6       1.0  0.21223499997258935  0.8092599999899045  0.0010447508444444446  1.0000
  Al  Al7       1.0  0.7122350000236938  0.30925999999927156  0.0010447508444444446  1.0000
  Al  Al8       1.0  0.7122350000236938  0.8092599999899045  0.0010447508444444446  1.0000
  Al  Al9       1.0  0.3749999999932362  0.06549000000132597  0.002364177955555556  1.0000
  Al  Al10      1.0  0.3749999999932362  0.5654899999919586  0.002364177955555556  1.0000
  Al  Al11      1.0  0.8749999999842178  0.06549000000132597  0.002364177955555556  1.0000
  Al  Al12      1.0  0.8749999999842178  0.5654899999919586  0.002364177955555556  1.0000
  Al  Al13      1.0  0.1249999999977454  0.1296699999801498  0.0031244426444444443  1.0000
  Al  Al14      1.0  0.1249999999977454  0.6296699999707824  0.0031244426444444443  1.0000
  Al  Al15      1.0  0.6249999999887269  0.1296699999801498  0.0031244426444444443  1.0000
  Al  Al16      1.0  0.6249999999887269  0.6296699999707824  0.0031244426444444443  1.0000
  Al  Al17      1.0  0.3749999999932362  0.3745800000057819  0.03147495831111111  1.0000
  Al  Al18      1.0  0.3749999999932362  0.8745799999964138  0.03147495831111111  1.0000
  Al  Al19      1.0  0.8749999999842178  0.3745800000057819  0.03147495831111111  1.0000
  Al  Al20      1.0  0.8749999999842178  0.8745799999964138  0.03147495831111111  1.0000
  Al  Al21      1.0  0.1249999999977454  0.43876499998445323  0.032235223  1.0000
  Al  Al22      1.0  0.1249999999977454  0.9387649999750858  0.032235223  1.0000
  Al  Al23      1.0  0.6249999999887269  0.43876499998445323  0.032235223  1.0000
  Al  Al24      1.0  0.6249999999887269  0.9387649999750858  0.032235223  1.0000
  Al  Al25      1.0  0.46223500002820306  0.19498999998665958  0.03355955504444445  1.0000
  Al  Al26      1.0  0.46223500002820306  0.6949899999772916  0.03355955504444445  1.0000
  Al  Al27      1.0  0.9622350000191846  0.19498999998665958  0.03355955504444445  1.0000
  Al  Al28      1.0  0.9622350000191846  0.6949899999772916  0.03355955504444445  1.0000
  Al  Al29      1.0  0.2877650000183922  0.19498999998665958  0.03355955504444445  1.0000
  Al  Al30      1.0  0.2877650000183922  0.6949899999772916  0.03355955504444445  1.0000
  Al  Al31      1.0  0.7877650000093739  0.19498999998665958  0.03355955504444445  1.0000
  Al  Al32      1.0  0.7877650000093739  0.6949899999772916  0.03355955504444445  1.0000
  Al  Al33      1.0  0.1249999999977454  0.25008999999257187  0.062439803533333345  1.0000
  Al  Al34      1.0  0.1249999999977454  0.7500899999832044  0.062439803533333345  1.0000
  Al  Al35      1.0  0.6249999999887269  0.25008999999257187  0.062439803533333345  1.0000
  Al  Al36      1.0  0.6249999999887269  0.7500899999832044  0.062439803533333345  1.0000
  Al  Al37      1.0  0.3749999999932362  0.06317500000947018  0.06336193102222222  1.0000
  Al  Al38      1.0  0.3749999999932362  0.5631750000001021  0.06336193102222222  1.0000
  Al  Al39      1.0  0.8749999999842178  0.06317500000947018  0.06336193102222222  1.0000
  Al  Al40      1.0  0.8749999999842178  0.5631750000001021  0.06336193102222222  1.0000
  Al  Al41      1.0  0.21077999998107616  0.06926500001110975  0.06426934373333333  1.0000
  Al  Al42      1.0  0.21077999998107616  0.5692650000017423  0.06426934373333333  1.0000
  Al  Al43      1.0  0.7107799999720578  0.06926500001110975  0.06426934373333333  1.0000
  Al  Al44      1.0  0.7107799999720578  0.5692650000017423  0.06426934373333333  1.0000
  Al  Al45      1.0  0.0392200000144147  0.06926500001110975  0.06426934373333333  1.0000
  Al  Al46      1.0  0.0392200000144147  0.5692650000017423  0.06426934373333333  1.0000
  Al  Al47      1.0  0.5392200000053963  0.06926500001110975  0.06426934373333333  1.0000
  Al  Al48      1.0  0.5392200000053963  0.5692650000017423  0.06426934373333333  1.0000
  Al  Al49      1.0  0.2849267678990904  0.43922799479989616  0.08531343953694173  1.0000
  Al  Al50      1.0  0.2802827121836126  0.9233467455876719  0.08932059397063487  1.0000
  Al  Al51      1.0  0.7177896082938053  0.381344544242967  0.09326008622276645  1.0000
  Al  Al52      1.0  0.7091401149415588  0.8830093454396498  0.09513801807133467  1.0000
  Al  Al53      1.0  0.46964191801093297  0.4118474035910875  0.08786957643428177  1.0000
  Al  Al54      1.0  0.47371972699188925  0.934281434912245  0.0910428534058351  1.0000
  Al  Al55      1.0  0.8835453124715447  0.4114918366863584  0.10129153197947356  1.0000
  Al  Al56      1.0  0.9593782566431583  0.9215272034557696  0.08891032137162715  1.0000
  Al  Al57      1.0  0.05061297129390444  0.39042605194045443  0.09707596593012909  1.0000
  Al  Al58      1.0  0.11877295556704155  0.961375559306035  0.09893669336635151  1.0000
  Al  Al59      1.0  0.6030973395139801  0.4964026002093933  0.11757805391321222  1.0000
  Al  Al60      1.0  0.6132438028051318  0.9504160248984278  0.14897567440462894  1.0000
  Al  Al61      1.0  0.3435086629711837  0.283122831961893  0.12730127229107324  1.0000
  Al  Al62      1.0  0.37516004821212173  0.752833291656861  0.09468436590467294  1.0000
  Al  Al63      1.0  0.8849061534096736  0.24974011131454063  0.09585642395994066  1.0000
  Al  Al64      1.0  0.8744227711988556  0.7515300556587479  0.09454467327089788  1.0000
  Al  Al65      1.0  0.17418432470044817  0.34717941923135526  0.12527918617606415  1.0000
  Al  Al66      1.0  0.07852727957984758  0.7757049421760571  0.18804930208454426  1.0000
  Al  Al67      1.0  0.6042038933507351  0.32594476706056374  0.13050361716022574  1.0000
  Al  Al68      1.0  0.5398337077689613  0.8133721568997442  0.11970138205285377  1.0000
  Al  Al69      1.0  0.3155869411635306  0.4276542014823335  0.15449095691724882  1.0000
  Al  Al70      1.0  0.20505195658755523  0.8184255604031793  0.13117972042846146  1.0000
  Al  Al71      1.0  0.8305894491799498  0.17580920845895512  0.1622014174684977  1.0000
  Al  Al72      1.0  0.7846419066888686  0.7488645195346693  0.14205567718789064  1.0000
  Al  Al73      1.0  0.6574599835049025  0.7784399505661126  0.19029213463702657  1.0000
  Al  Al74      1.0  0.3786381420924452  0.576814032346243  0.12294443104600115  1.0000
  Al  Al75      1.0  0.7813160224206077  0.9111859216807917  0.1691960470536366  1.0000
  Al  Al76      1.0  0.9388544692627441  0.5846268891295637  0.22355431333690695  1.0000
  Al  Al77      1.0  0.1725549680381687  0.1724995094436949  0.1470770789055603  1.0000
  Al  Al78      1.0  0.12795916823492307  0.6491018599081748  0.11822451526656316  1.0000
  Al  Al79      1.0  0.6310883670408094  0.15278038077396383  0.14943460185088886  1.0000
  Al  Al80      1.0  0.5281121318513535  0.5658529558592931  0.18226346658744225  1.0000
  Al  Al81      1.0  0.4710729882618816  0.4055978762119683  0.16093771050782654  1.0000
  Al  Al82      1.0  0.32428724920877927  0.8572171544458257  0.18337687025918784  1.0000
  Al  Al83      1.0  0.8233940634289971  0.48199854862963226  0.1667592687090157  1.0000
  Al  Al84      1.0  0.8901849739460015  0.7839044913630233  0.20249299676664786  1.0000
  Al  Al85      1.0  0.12202154790269665  0.6220425370309512  0.21878134660553508  1.0000
  Al  Al86      1.0  0.024787972645576212  0.8954047732141752  0.1570442110049742  1.0000
  Al  Al87      1.0  0.6733780640052316  0.6093097865969381  0.16042429129027808  1.0000
  Al  Al88      1.0  0.5732583964464406  0.08004398432093285  0.2010542064548379  1.0000
  Al  Al89      1.0  0.46224943426014353  0.19396567878339713  0.10098310946887587  1.0000
  Al  Al90      1.0  0.48954673896468637  0.7498613915205484  0.18816642253089472  1.0000
  Al  Al91      1.0  0.9660504579699519  0.10138942811282661  0.132913350467265  1.0000
  Al  Al92      1.0  0.8623546738182908  0.5785842498233403  0.1195530972484891  1.0000
  Al  Al93      1.0  0.3310263304833796  0.08208244614533562  0.12997772442397537  1.0000
  Al  Al94      1.0  0.3574961721623537  0.6978074352447354  0.16414576633806174  1.0000
  Al  Al95      1.0  0.773438264015914  0.033349409371131226  0.12605547177699988  1.0000
  Al  Al96      1.0  0.7010724417198732  0.6260646381194713  0.2219539252393108  1.0000
  O   O1        1.0  0.20348500002445286  0.4303849999901957  0.0  1.0000
  O   O2        1.0  0.20348500002445286  0.9303849999808282  0.0  1.0000
  O   O3        1.0  0.7034850000154345  0.4303849999901957  0.0  1.0000
  O   O4        1.0  0.7034850000154345  0.9303849999808282  0.0  1.0000
  O   O5        1.0  0.04651499997103794  0.4303849999901957  0.0  1.0000
  O   O6        1.0  0.04651499997103794  0.9303849999808282  0.0  1.0000
  O   O7        1.0  0.5465150000221424  0.4303849999901957  0.0  1.0000
  O   O8        1.0  0.5465150000221424  0.9303849999808282  0.0  1.0000
  O   O9        1.0  0.3749999999932362  0.44730999997367926  0.00042672922222222227  1.0000
  O   O10       1.0  0.3749999999932362  0.9473100000267611  0.00042672922222222227  1.0000
  O   O11       1.0  0.8749999999842178  0.44730999997367926  0.00042672922222222227  1.0000
  O   O12       1.0  0.8749999999842178  0.9473100000267611  0.00042672922222222227  1.0000
  O   O13       1.0  0.3749999999932362  0.1825449999914617  0.0034726929111111113  1.0000
  O   O14       1.0  0.3749999999932362  0.6825449999820935  0.0034726929111111113  1.0000
  O   O15       1.0  0.8749999999842178  0.1825449999914617  0.0034726929111111113  1.0000
  O   O16       1.0  0.8749999999842178  0.6825449999820935  0.0034726929111111113  1.0000
  O   O17       1.0  0.04077500000121253  0.19546499997217512  0.004110334266666666  1.0000
  O   O18       1.0  0.04077500000121253  0.6954650000252569  0.004110334266666666  1.0000
  O   O19       1.0  0.5407749999921941  0.19546499997217512  0.004110334266666666  1.0000
  O   O20       1.0  0.5407749999921941  0.6954650000252569  0.004110334266666666  1.0000
  O   O21       1.0  0.20922499999427827  0.19546499997217512  0.004110334266666666  1.0000
  O   O22       1.0  0.20922499999427827  0.6954650000252569  0.004110334266666666  1.0000
  O   O23       1.0  0.7092249999852599  0.19546499997217512  0.004110334266666666  1.0000
  O   O24       1.0  0.7092249999852599  0.6954650000252569  0.004110334266666666  1.0000
  O   O25       1.0  0.45922499998976907  0.3087900000136041  0.030493971600000003  1.0000
  O   O26       1.0  0.45922499998976907  0.8087900000042367  0.030493971600000003  1.0000
  O   O27       1.0  0.9592249999807506  0.3087900000136041  0.030493971600000003  1.0000
  O   O28       1.0  0.9592249999807506  0.8087900000042367  0.030493971600000003  1.0000
  O   O29       1.0  0.29077499999670336  0.3087900000136041  0.030493971600000003  1.0000
  O   O30       1.0  0.29077499999670336  0.8087900000042367  0.030493971600000003  1.0000
  O   O31       1.0  0.790774999987685  0.3087900000136041  0.030493971600000003  1.0000
  O   O32       1.0  0.790774999987685  0.8087900000042367  0.030493971600000003  1.0000
  O   O33       1.0  0.1249999999977454  0.32170999999431754  0.031126708022222227  1.0000
  O   O34       1.0  0.1249999999977454  0.8217099999849494  0.031126708022222227  1.0000
  O   O35       1.0  0.6249999999887269  0.32170999999431754  0.031126708022222227  1.0000
  O   O36       1.0  0.6249999999887269  0.8217099999849494  0.031126708022222227  1.0000
  O   O37       1.0  0.1249999999977454  0.05694000001225237  0.03417757666666667  1.0000
  O   O38       1.0  0.1249999999977454  0.5569400000028849  0.03417757666666667  1.0000
  O   O39       1.0  0.6249999999887269  0.05694000001225237  0.03417757666666667  1.0000
  O   O40       1.0  0.6249999999887269  0.5569400000028849  0.03417757666666667  1.0000
  O   O41       1.0  0.29651500002665165  0.07386999999558351  0.034604305888888895  1.0000
  O   O42       1.0  0.29651500002665165  0.5738699999862161  0.034604305888888895  1.0000
  O   O43       1.0  0.7965150000176334  0.07386999999558351  0.034604305888888895  1.0000
  O   O44       1.0  0.7965150000176334  0.5738699999862161  0.034604305888888895  1.0000
  O   O45       1.0  0.45348500001994363  0.07386999999558351  0.034604305888888895  1.0000
  O   O46       1.0  0.45348500001994363  0.5738699999862161  0.034604305888888895  1.0000
  O   O47       1.0  0.9534850000109253  0.07386999999558351  0.034604305888888895  1.0000
  O   O48       1.0  0.9534850000109253  0.5738699999862161  0.034604305888888895  1.0000
  O   O49       1.0  0.041179999982115016  0.18235499999725555  0.062209271644444446  1.0000
  O   O50       1.0  0.041179999982115016  0.6823549999878881  0.062209271644444446  1.0000
  O   O51       1.0  0.5411799999730966  0.18235499999725555  0.062209271644444446  1.0000
  O   O52       1.0  0.5411799999730966  0.6823549999878881  0.062209271644444446  1.0000
  O   O53       1.0  0.2088200000133758  0.18235499999725555  0.062209271644444446  1.0000
  O   O54       1.0  0.2088200000133758  0.6823549999878881  0.062209271644444446  1.0000
  O   O55       1.0  0.7088200000043574  0.18235499999725555  0.062209271644444446  1.0000
  O   O56       1.0  0.7088200000043574  0.6823549999878881  0.062209271644444446  1.0000
  O   O57       1.0  0.3749999999932362  0.1864849999962138  0.062228891377777776  1.0000
  O   O58       1.0  0.3749999999932362  0.6864849999868465  0.062228891377777776  1.0000
  O   O59       1.0  0.8749999999842178  0.1864849999962138  0.062228891377777776  1.0000
  O   O60       1.0  0.8749999999842178  0.6864849999868465  0.062228891377777776  1.0000
  O   O61       1.0  0.3749999999932362  0.43896999997820163  0.06408295624444445  1.0000
  O   O62       1.0  0.3749999999932362  0.9389699999688346  0.06408295624444445  1.0000
  O   O63       1.0  0.8749999999842178  0.43896999997820163  0.06408295624444445  1.0000
  O   O64       1.0  0.8749999999842178  0.9389699999688346  0.06408295624444445  1.0000
  O   O65       1.0  0.2033649999699885  0.4491999999784949  0.06459797426666666  1.0000
  O   O66       1.0  0.2033649999699885  0.9491999999691275  0.06459797426666666  1.0000
  O   O67       1.0  0.7033650000210929  0.4491999999784949  0.06459797426666666  1.0000
  O   O68       1.0  0.7033650000210929  0.9491999999691275  0.06459797426666666  1.0000
  O   O69       1.0  0.0466350000255023  0.4491999999784949  0.06459797426666666  1.0000
  O   O70       1.0  0.0466350000255023  0.9491999999691275  0.06459797426666666  1.0000
  O   O71       1.0  0.5466350000164839  0.4491999999784949  0.06459797426666666  1.0000
  O   O72       1.0  0.5466350000164839  0.9491999999691275  0.06459797426666666  1.0000
  O   O73       1.0  0.29961897896176654  0.04407446394228869  0.0941054275065126  1.0000
  O   O74       1.0  0.2982543388334709  0.5505113486067883  0.09383393101997836  1.0000
  O   O75       1.0  0.7913905360788022  0.06905933197180993  0.09091866700623176  1.0000
  O   O76       1.0  0.7939963489229256  0.5623174499131258  0.09118432876353454  1.0000
  O   O77       1.0  0.4606941199876737  0.06371048720943252  0.09191439528020817  1.0000
  O   O78       1.0  0.4510910527914542  0.5499166584425778  0.09264582697034932  1.0000
  O   O79       1.0  0.9567731324437698  0.05788461555409052  0.09495283616728291  1.0000
  O   O80       1.0  0.949768052818185  0.5674299230247273  0.0935890322961905  1.0000
  O   O81       1.0  0.12644436218491145  0.0685135154322377  0.09170674850385795  1.0000
  O   O82       1.0  0.1264200349070818  0.5750207637935523  0.09161773909061476  1.0000
  O   O83       1.0  0.6039721578114454  0.049473976842359005  0.16402689583156096  1.0000
  O   O84       1.0  0.6231096328703725  0.5696928481041866  0.09069619517846159  1.0000
  O   O85       1.0  0.12462757862898248  0.3079768430043542  0.09369745227981979  1.0000
  O   O86       1.0  0.13911416181122035  0.7534621306002321  0.10640235881432819  1.0000
  O   O87       1.0  0.6359803779390826  0.3084767371418085  0.09316230262642332  1.0000
  O   O88       1.0  0.6254529961944622  0.8105553669502977  0.0954611733445517  1.0000
  O   O89       1.0  0.4280922059133936  0.3085658434678054  0.10023115111640328  1.0000
  O   O90       1.0  0.4557606359665155  0.8231131095632724  0.09598249114347338  1.0000
  O   O91       1.0  0.9586030010470922  0.3321858469161637  0.1011608944844026  1.0000
  O   O92       1.0  0.9525350424314527  0.8181579087468499  0.09847185790903192  1.0000
  O   O93       1.0  0.27948162623118056  0.3835838214426556  0.11811810783495719  1.0000
  O   O94       1.0  0.29210724921572706  0.8178281006456186  0.09966676049844338  1.0000
  O   O95       1.0  0.8081820120234999  0.3276731760497415  0.10123481399592756  1.0000
  O   O96       1.0  0.7824521734058947  0.8079844534714397  0.10755647131888761  1.0000
  O   O97       1.0  0.22731239878896464  0.4671072662155847  0.16680618386553658  1.0000
  O   O98       1.0  0.20123841270726367  0.9235757924796127  0.11918663104805541  1.0000
  O   O99       1.0  0.674700144763038  0.4199378756715002  0.126523625653898  1.0000
  O   O100      1.0  0.6906634511632773  0.9632777760770579  0.12237331776841073  1.0000
  O   O101      1.0  0.09762419405558748  0.416410207691103  0.13085753389947216  1.0000
  O   O102      1.0  0.03088737760546359  0.9408140199202291  0.12173042541299778  1.0000
  O   O103      1.0  0.5253851745329491  0.4131290086203888  0.12327880178804648  1.0000
  O   O104      1.0  0.5328855693493575  0.9250022912621865  0.12573095127985645  1.0000
  O   O105      1.0  0.39690867984705125  0.48360458413315877  0.14163704196257143  1.0000
  O   O106      1.0  0.3151660080299787  0.0640399352754164  0.20085517064061792  1.0000
  O   O107      1.0  0.8721693738284025  0.5133595275018168  0.19987279869725333  1.0000
  O   O108      1.0  0.7822638623039515  0.9761865397972864  0.199602404238154  1.0000
  O   O109      1.0  0.37616751781039326  0.1794608280520768  0.1254732125749848  1.0000
  O   O110      1.0  0.3886047373675032  0.6859357231465691  0.12494616678041247  1.0000
  O   O111      1.0  0.894820363055391  0.18811691300105488  0.12833886486113674  1.0000
  O   O112      1.0  0.8629400775357162  0.6867760160066498  0.1273695953112346  1.0000
  O   O113      1.0  0.06620659824956622  0.1236216928957439  0.14971763860328174  1.0000
  O   O114      1.0  0.11855989822822446  0.7279114815799765  0.21713025876200276  1.0000
  O   O115      1.0  0.5546389236850341  0.19436489527988884  0.12371500424292307  1.0000
  O   O116      1.0  0.5296703886751506  0.7735094077032826  0.15356091322897533  1.0000
  O   O117      1.0  0.23765661839111102  0.08427259328253688  0.150834727392056  1.0000
  O   O118      1.0  0.14518301337095676  0.62028888700514  0.15469465104212626  1.0000
  O   O119      1.0  0.7428208363273372  0.12209492900658836  0.1473735070014498  1.0000
  O   O120      1.0  0.6906925850252917  0.7170055102960088  0.1561521662723883  1.0000
  O   O121      1.0  0.5969649384284355  0.18301269426577277  0.18991613781751382  1.0000
  O   O122      1.0  0.38423028383627894  0.7688664196358741  0.19297178260178657  1.0000
  O   O123      1.0  0.9074207127448921  0.09658219971665781  0.16931225392639437  1.0000
  O   O124      1.0  0.9826389560973213  0.8150880430502718  0.18197899930705935  1.0000
  O   O125      1.0  0.3773814912283632  0.3393340774300376  0.1601506791397275  1.0000
  O   O126      1.0  0.27811497988685846  0.7822147055185977  0.15728092965516816  1.0000
  O   O127      1.0  0.15025545916416783  0.05386420217204084  0.19716527921156354  1.0000
  O   O128      1.0  0.8233464850027934  0.8093971991279189  0.1716702633342447  1.0000
  O   O129      1.0  0.2311522801160214  0.2536478408295276  0.13378625234719338  1.0000
  O   O130      1.0  0.11636448397119191  0.8304346818004167  0.15827901260463234  1.0000
  O   O131      1.0  0.6810687094390565  0.3152950725465109  0.21002563322945714  1.0000
  O   O132      1.0  0.6737328954322522  0.8794654410961461  0.17103739647453345  1.0000
  O   O133      1.0  0.003986501469770144  0.9799842478078332  0.1800706966451491  1.0000
  O   O134      1.0  0.21142024009740346  0.5841396675880832  0.20653555450296843  1.0000
  O   O135      1.0  0.5520300268673995  0.3315409706179708  0.16880683299624338  1.0000
  O   O136      1.0  0.5843083055450775  0.5622572704972651  0.14746234357859447  1.0000
  O   O137      1.0  0.3914214169830921  0.022511578769776656  0.15196287733610195  1.0000
  O   O138      1.0  0.3012242042336786  0.6049919010021245  0.15714093129290543  1.0000
  O   O139      1.0  0.8379500209059115  0.9626500324246235  0.14189789715591467  1.0000
  O   O140      1.0  0.9115702524958257  0.6839782264089279  0.21285281060065042  1.0000
  O   O141      1.0  0.5694510059821192  0.7712651750274044  0.21030137561760912  1.0000
  O   O142      1.0  0.4564214989346248  0.6446660804027363  0.17926555652931392  1.0000
  O   O143      1.0  0.9084743165498387  0.021449148608454954  0.2268449311486622  1.0000
  O   O144      1.0  0.8808536908222615  0.4744314309519953  0.1338241477545141  1.0000
  Si  Si1       1.0  0.21816578249411964  0.5674516825636704  0.17151844290840215  1.0000
  O   O145      1.0  0.040196190574700585  0.5646277596703001  0.2232703793607847  1.0000
  O   O146      1.0  0.7263048279670034  0.7263013129759731  0.21480825189591402  1.0000
  Si  Si2       1.0  0.7171838719612905  0.0642574576544845  0.2415914744145003  1.0000
  O   O147      1.0  0.4886561011766542  0.4709306183019125  0.1902119142205046  1.0000
  O   O148      1.0  0.6263167254753024  0.5977033278195112  0.19694227727505517  1.0000
  Si  Si3       1.0  0.3997831129245742  0.019705626289345343  0.1885814918955357  1.0000
  O   O149      1.0  0.24331506069040898  0.9286950094461527  0.18152674617664116  1.0000
  O   O150      1.0  0.4006020756195177  0.9220624052441151  0.19605678626380166  1.0000
  Si  Si4       1.0  0.7779370357545753  0.3296067180280544  0.20269218259855815  1.0000
  O   O151      1.0  0.7687457406217705  0.5688701824066975  0.1545098757805581  1.0000
  O   O152      1.0  0.7722048380441242  0.9885393431313046  0.2547173808037593  1.0000
  Si  Si5       1.0  0.9543804613348511  0.0500006393298573  0.1976081068798939  1.0000
  O   O153      1.0  0.6320880005926718  0.037488553535730995  0.22883076101585234  1.0000
  O   O154      1.0  0.6717560156234038  0.2611063351582896  0.152821146791612  1.0000
  Si  Si6       1.0  0.8345343022688828  0.9540294796148725  0.22912767861446315  1.0000
  O   O155      1.0  0.01351873996934505  0.12632617794618267  0.20859287239427632  1.0000
  O   O156      1.0  0.7786721922901733  0.39056441232889705  0.17452966482006146  1.0000
  Si  Si7       1.0  0.2370126732905004  0.02762656810101827  0.1839169921509994  1.0000
  O   O157      1.0  0.8669453019479934  0.8607391373568521  0.22875902754839936  1.0000
  O   O158      1.0  0.7436714422776416  0.5367767349926972  0.23472267395640492  1.0000
  Si  Si8       1.0  0.09135019358988844  0.13113394239558537  0.18831282112910946  1.0000
  O   O159      1.0  0.8209413000823355  0.24406603505987876  0.19134902966468142  1.0000
  O   O160      1.0  0.7443937776592118  0.15558925775559243  0.24286921205191211  1.0000
  Si  Si9       1.0  0.6240039733115896  0.2790047980226691  0.18493339896043468  1.0000
  O   O161      1.0  0.8151245546744692  0.3829947441062116  0.2308664869442922  1.0000
  O   O162      1.0  0.4727650847899562  0.06844452048895369  0.2030071734438486  1.0000
  Si  Si10      1.0  0.8273673442847317  0.48419926410311936  0.23253335080238915  1.0000
  O   O163      1.0  0.14556928213880083  0.21159830213698227  0.1825237100585575  1.0000
  O   O164      1.0  0.8937539345342878  0.5271117706924231  0.25303654200312753  1.0000
